
  -ISIS-  04269506302D

  6  6  0  0  0  0  0  0  0  0  1 V2000
    1.3333    0.7708    0.0000 C   0  0  0  0  0  0  0  0  0  0  0  0
    0.0000    1.5458    0.0000 C   0  0  0  0  0  0  0  0  0  0  0  0
    1.3333   -0.7667    0.0000 C   0  0  0  0  0  0  0  0  0  0  0  0
   -1.3375    0.7708    0.0000 C   0  0  0  0  0  0  0  0  0  0  0  0
    0.0000   -1.5417    0.0000 C   0  0  0  0  0  0  0  0  0  0  0  0
   -1.3375   -0.7667    0.0000 C   0  0  0  0  0  0  0  0  0  0  0  0
  2  1  1  0  0  0  0
  3  1  2  0  0  0  0
  4  2  2  0  0  0  0
  5  3  1  0  0  0  0
  6  5  2  0  0  0  0
  4  6  1  0  0  0  0
M  END
>  <MOLREGNO> (2)
2

>  <MOLNAME> (2)
Benzene

>  <CORP_ID> (2)
MUSE00000002

>  <DATE> (2)
1/1/91

$$$$

  -ISIS-  04269506302D

  7  7  0  0  0  0  0  0  0  0  1 V2000
    1.7917    1.4542    0.0000 Br  0  0  0  0  0  0  0  0  0  0  0  0
    0.4542    0.6833    0.0000 C   0  0  0  0  0  0  0  0  0  0  0  0
    0.4542   -0.8583    0.0000 C   0  0  0  0  0  0  0  0  0  0  0  0
   -0.8750    1.4542    0.0000 C   0  0  0  0  0  0  0  0  0  0  0  0
   -2.2167    0.6833    0.0000 C   0  0  0  0  0  0  0  0  0  0  0  0
   -0.8750   -1.6333    0.0000 C   0  0  0  0  0  0  0  0  0  0  0  0
   -2.2167   -0.8583    0.0000 C   0  0  0  0  0  0  0  0  0  0  0  0
  2  1  1  0  0  0  0
  3  2  2  0  0  0  0
  4  2  1  0  0  0  0
  5  4  2  0  0  0  0
  6  3  1  0  0  0  0
  7  5  1  0  0  0  0
  6  7  2  0  0  0  0
M  END
>  <MOLREGNO> (3)
3

>  <MOLNAME> (3)
Bromobenzene

>  <CORP_ID> (3)
MUSE00000003

>  <DATE> (3)
1/1/91

$$$$

  -ISIS-  04269506302D

  7  7  0  0  0  0  0  0  0  0  1 V2000
    1.7917    1.4542    0.0000 Cl  0  0  0  0  0  0  0  0  0  0  0  0
    0.4542    0.6833    0.0000 C   0  0  0  0  0  0  0  0  0  0  0  0
    0.4542   -0.8583    0.0000 C   0  0  0  0  0  0  0  0  0  0  0  0
   -0.8750    1.4542    0.0000 C   0  0  0  0  0  0  0  0  0  0  0  0
   -2.2167    0.6833    0.0000 C   0  0  0  0  0  0  0  0  0  0  0  0
   -0.8750   -1.6333    0.0000 C   0  0  0  0  0  0  0  0  0  0  0  0
   -2.2167   -0.8583    0.0000 C   0  0  0  0  0  0  0  0  0  0  0  0
  2  1  1  0  0  0  0
  3  2  2  0  0  0  0
  4  2  1  0  0  0  0
  5  4  2  0  0  0  0
  6  3  1  0  0  0  0
  7  5  1  0  0  0  0
  6  7  2  0  0  0  0
M  END
>  <MOLREGNO> (4)
4

>  <MOLNAME> (4)
Chlorobenzene

>  <CORP_ID> (4)
MUSE00000004

>  <DATE> (4)
1/1/91

$$$$

  -ISIS-  04269506302D

  7  7  0  0  0  0  0  0  0  0  1 V2000
    1.9542    1.4583    0.0000 F   0  0  0  0  0  0  0  0  0  0  0  0
    0.6042    0.6833    0.0000 C   0  0  0  0  0  0  0  0  0  0  0  0
    0.6042   -0.8625    0.0000 C   0  0  0  0  0  0  0  0  0  0  0  0
   -0.7208    1.4583    0.0000 C   0  0  0  0  0  0  0  0  0  0  0  0
   -2.0708    0.6833    0.0000 C   0  0  0  0  0  0  0  0  0  0  0  0
   -0.7208   -1.6375    0.0000 C   0  0  0  0  0  0  0  0  0  0  0  0
   -2.0708   -0.8625    0.0000 C   0  0  0  0  0  0  0  0  0  0  0  0
  2  1  1  0  0  0  0
  3  2  2  0  0  0  0
  4  2  1  0  0  0  0
  5  4  2  0  0  0  0
  6  3  1  0  0  0  0
  7  5  1  0  0  0  0
  6  7  2  0  0  0  0
M  END
>  <MOLREGNO> (5)
5

>  <MOLNAME> (5)
Fluorobenzene

>  <CORP_ID> (5)
MUSE00000005

>  <DATE> (5)
1/1/91

$$$$

  -ISIS-  04269506302D

  6  6  0  0  0  0  0  0  0  0  1 V2000
    0.0000    1.5458    0.0000 C   0  0  0  0  0  0  0  0  0  0  0  0
   -1.3375    0.7708    0.0000 C   0  0  0  0  0  0  0  0  0  0  0  0
    1.3333    0.7708    0.0000 C   0  0  0  0  0  0  0  0  0  0  0  0
   -1.3375   -0.7667    0.0000 C   0  0  0  0  0  0  0  0  0  0  0  0
    1.3333   -0.7667    0.0000 C   0  0  0  0  0  0  0  0  0  0  0  0
    0.0000   -1.5417    0.0000 C   0  0  0  0  0  0  0  0  0  0  0  0
  2  1  1  0  0  0  0
  3  1  1  0  0  0  0
  4  2  1  0  0  0  0
  5  3  1  0  0  0  0
  6  5  1  0  0  0  0
  4  6  1  0  0  0  0
M  END
>  <MOLREGNO> (27)
27

>  <MOLNAME> (27)
Cyclohexane

>  <CORP_ID> (27)
MUSE00000027

>  <DATE> (27)
1/1/91

$$$$

  -ISIS-  04269506302D

  7  7  0  0  0  0  0  0  0  0  1 V2000
    0.0000    1.1292    0.0000 O   0  0  0  0  0  0  0  0  0  0  0  0
    1.2625    0.2042    0.0000 C   0  0  0  0  0  0  0  0  0  0  0  0
   -1.2667    0.1917    0.0000 C   0  0  0  0  0  0  0  0  0  0  0  0
    0.7542   -1.3083    0.0000 C   0  0  0  0  0  0  0  0  0  0  0  0
   -0.7750   -1.3083    0.0000 C   0  0  0  0  0  0  0  0  0  0  0  0
    2.7333    0.6792    0.0000 C   0  0  0  0  0  0  0  0  0  0  0  0
   -2.7375    0.6625    0.0000 C   0  0  0  0  0  0  0  0  0  0  0  0
  2  1  1  0  0  0  0
  3  1  1  0  0  0  0
  4  2  2  0  0  0  0
  5  3  2  0  0  0  0
  6  2  1  0  0  0  0
  7  3  1  0  0  0  0
  4  5  1  0  0  0  0
M  END
>  <MOLREGNO> (30)
30

>  <MOLNAME> (30)
2,5-Dimethyl furan

>  <CORP_ID> (30)
MUSE00000030

>  <DATE> (30)
1/1/91

$$$$

  -ISIS-  04269506302D

  7  7  0  0  0  0  0  0  0  0  1 V2000
    1.9542    1.4583    0.0000 N   0  0  0  0  0  0  0  0  0  0  0  0
    0.6083    0.6792    0.0000 C   0  0  0  0  0  0  0  0  0  0  0  0
    0.6083   -0.8583    0.0000 C   0  0  0  0  0  0  0  0  0  0  0  0
   -0.7208    1.4625    0.0000 C   0  0  0  0  0  0  0  0  0  0  0  0
   -2.0667    0.6792    0.0000 C   0  0  0  0  0  0  0  0  0  0  0  0
   -0.7208   -1.6375    0.0000 C   0  0  0  0  0  0  0  0  0  0  0  0
   -2.0667   -0.8583    0.0000 C   0  0  0  0  0  0  0  0  0  0  0  0
  2  1  1  0  0  0  0
  3  2  2  0  0  0  0
  4  2  1  0  0  0  0
  5  4  2  0  0  0  0
  6  3  1  0  0  0  0
  7  5  1  0  0  0  0
  6  7  2  0  0  0  0
M  END
>  <MOLREGNO> (33)
33

>  <MOLNAME> (33)
Aniline

>  <CORP_ID> (33)
MUSE00000033

>  <DATE> (33)
1/1/91

$$$$

  -ISIS-  04269506302D

  7  7  0  0  0  0  0  0  0  0  1 V2000
    0.6083    0.6792    0.0000 C   0  0  0  0  0  0  0  0  0  0  0  0
    1.9542    1.4583    0.0000 O   0  0  0  0  0  0  0  0  0  0  0  0
    0.6083   -0.8583    0.0000 C   0  0  0  0  0  0  0  0  0  0  0  0
   -0.7208    1.4625    0.0000 C   0  0  0  0  0  0  0  0  0  0  0  0
   -2.0667    0.6792    0.0000 C   0  0  0  0  0  0  0  0  0  0  0  0
   -0.7208   -1.6375    0.0000 C   0  0  0  0  0  0  0  0  0  0  0  0
   -2.0667   -0.8583    0.0000 C   0  0  0  0  0  0  0  0  0  0  0  0
  2  1  1  0  0  0  0
  3  1  2  0  0  0  0
  4  1  1  0  0  0  0
  5  4  2  0  0  0  0
  6  3  1  0  0  0  0
  7  5  1  0  0  0  0
  6  7  2  0  0  0  0
M  END
>  <MOLREGNO> (34)
34

>  <MOLNAME> (34)
Phenol

>  <CORP_ID> (34)
MUSE00000034

>  <DATE> (34)
1/1/91

$$$$

  -ISIS-  04269506302D

  8  8  0  0  0  0  0  0  0  0  1 V2000
    0.6125    0.0542    0.0000 C   0  0  0  0  0  0  0  0  0  0  0  0
   -0.7208   -0.7167    0.0000 C   0  0  0  0  0  0  0  0  0  0  0  0
    0.6125    1.5958    0.0000 C   0  0  0  0  0  0  0  0  0  0  0  0
   -0.7208   -2.2625    0.0000 Br  0  0  0  0  0  0  0  0  0  0  0  0
    1.9500    2.3708    0.0000 O   0  0  0  0  0  0  0  0  0  0  0  0
   -2.0667    1.5958    0.0000 C   0  0  0  0  0  0  0  0  0  0  0  0
   -2.0667    0.0542    0.0000 C   0  0  0  0  0  0  0  0  0  0  0  0
   -0.7208    2.3708    0.0000 C   0  0  0  0  0  0  0  0  0  0  0  0
  2  1  1  0  0  0  0
  3  1  2  0  0  0  0
  4  2  1  0  0  0  0
  5  3  1  0  0  0  0
  6  8  2  0  0  0  0
  7  2  2  0  0  0  0
  8  3  1  0  0  0  0
  7  6  1  0  0  0  0
M  END
>  <MOLREGNO> (35)
35

>  <MOLNAME> (35)
3-Bromophenol

>  <CORP_ID> (35)
MUSE00000035

>  <DATE> (35)
1/1/91

$$$$

  -ISIS-  04269506302D

  8  8  0  0  0  0  0  0  0  0  1 V2000
    0.6125    0.0542    0.0000 C   0  0  0  0  0  0  0  0  0  0  0  0
   -0.7208   -0.7167    0.0000 C   0  0  0  0  0  0  0  0  0  0  0  0
    0.6125    1.5958    0.0000 C   0  0  0  0  0  0  0  0  0  0  0  0
   -0.7208   -2.2625    0.0000 Cl  0  0  0  0  0  0  0  0  0  0  0  0
    1.9500    2.3708    0.0000 O   0  0  0  0  0  0  0  0  0  0  0  0
   -2.0667    1.5958    0.0000 C   0  0  0  0  0  0  0  0  0  0  0  0
   -2.0667    0.0542    0.0000 C   0  0  0  0  0  0  0  0  0  0  0  0
   -0.7208    2.3708    0.0000 C   0  0  0  0  0  0  0  0  0  0  0  0
  2  1  1  0  0  0  0
  3  1  2  0  0  0  0
  4  2  1  0  0  0  0
  5  3  1  0  0  0  0
  6  8  2  0  0  0  0
  7  2  2  0  0  0  0
  8  3  1  0  0  0  0
  7  6  1  0  0  0  0
M  END
>  <MOLREGNO> (36)
36

>  <MOLNAME> (36)
3-Chlorophenol

>  <CORP_ID> (36)
MUSE00000036

>  <DATE> (36)
1/1/91

$$$$

  -ISIS-  04269506302D

  9  8  0  0  1  0  0  0  0  0  1 V2000
    1.2917   -1.2750    0.0000 C   0  0  0  0  0  0  0  0  0  0  0  0
    0.0000   -0.4292    0.0000 C   0  0  2  0  0  0  0  0  0  0  0  0
    2.6083   -0.5417    0.0000 O   0  0  0  0  0  0  0  0  0  0  0  0
   -0.0583    1.1000    0.0000 C   0  0  0  0  0  0  0  0  0  0  0  0
   -1.1792   -1.3500    0.0000 N   0  0  0  0  0  0  0  0  0  0  0  0
    1.2917   -2.7750    0.0000 O   0  0  0  0  0  0  0  0  0  0  0  0
   -1.5167    1.5542    0.0000 C   0  0  3  0  0  0  0  0  0  0  0  0
   -2.0125    3.0583    0.0000 C   0  0  0  0  0  0  0  0  0  0  0  0
   -2.7208    0.6417    0.0000 C   0  0  0  0  0  0  0  0  0  0  0  0
  2  1  1  0  0  0  0
  3  1  2  0  0  0  0
  4  2  1  0  0  0  0
  2  5  1  1  0  0  0
  6  1  1  0  0  0  0
  7  4  1  0  0  0  0
  8  7  1  0  0  0  0
  9  7  1  0  0  0  0
M  END
>  <MOLREGNO> (59)
59

>  <MOLNAME> (59)
(L) Leucine

>  <CORP_ID> (59)
MUSE00000059

>  <DATE> (59)
1/1/91

$$$$

  -ISIS-  04269506302D

  9  8  0  0  1  0  0  0  0  0  1 V2000
    0.6917   -1.5042    0.0000 C   0  0  0  0  0  0  0  0  0  0  0  0
   -0.5875   -0.6542    0.0000 C   0  0  1  0  0  0  0  0  0  0  0  0
    2.0125   -0.7667    0.0000 O   0  0  0  0  0  0  0  0  0  0  0  0
   -1.7875   -1.5708    0.0000 N   0  0  0  0  0  0  0  0  0  0  0  0
    0.6917   -3.0083    0.0000 O   0  0  0  0  0  0  0  0  0  0  0  0
   -0.6500    0.8750    0.0000 C   0  0  3  0  0  0  0  0  0  0  0  0
    0.5625    1.8208    0.0000 C   0  0  0  0  0  0  0  0  0  0  0  0
   -2.1292    1.3375    0.0000 C   0  0  0  0  0  0  0  0  0  0  0  0
    0.0875    3.2917    0.0000 C   0  0  0  0  0  0  0  0  0  0  0  0
  2  1  1  0  0  0  0
  3  1  2  0  0  0  0
  2  4  1  1  0  0  0
  5  1  1  0  0  0  0
  6  2  1  0  0  0  0
  7  6  1  0  0  0  0
  8  6  1  0  0  0  0
  9  7  1  0  0  0  0
M  END
>  <MOLREGNO> (60)
60

>  <MOLNAME> (60)
(L) Isoleucine

>  <CORP_ID> (60)
MUSE00000060

>  <DATE> (60)
1/1/91

$$$$

  -ISIS-  04269506302D

 10  9  0  0  1  0  0  0  0  0  1 V2000
    1.5833   -2.3833    0.0000 C   0  0  0  0  0  0  0  0  0  0  0  0
    2.9083   -1.6500    0.0000 O   0  0  0  0  0  0  0  0  0  0  0  0
    0.2917   -1.5417    0.0000 C   0  0  1  0  0  0  0  0  0  0  0  0
    1.5833   -3.8875    0.0000 O   0  0  0  0  0  0  0  0  0  0  0  0
   -0.8833   -2.4542    0.0000 N   0  0  0  0  0  0  0  0  0  0  0  0
   -2.8250    3.9917    0.0000 N   0  0  0  0  0  0  0  0  0  0  0  0
   -2.7625    2.4500    0.0000 C   0  0  0  0  0  0  0  0  0  0  0  0
    0.2333   -0.0083    0.0000 C   0  0  0  0  0  0  0  0  0  0  0  0
   -1.2917    1.9875    0.0000 C   0  0  0  0  0  0  0  0  0  0  0  0
   -1.2292    0.4417    0.0000 C   0  0  0  0  0  0  0  0  0  0  0  0
  2  1  2  0  0  0  0
  3  1  1  0  0  0  0
  4  1  1  0  0  0  0
  3  5  1  1  0  0  0
  6  7  1  0  0  0  0
  7  9  1  0  0  0  0
  8  3  1  0  0  0  0
  9 10  1  0  0  0  0
 10  8  1  0  0  0  0
M  END
>  <MOLREGNO> (67)
67

>  <MOLNAME> (67)
(L) Lysine

>  <CORP_ID> (67)
MUSE00000067

>  <DATE> (67)
1/1/91

$$$$

  -ISIS-  04269506302D

 11 10  0  0  1  0  0  0  0  0  1 V2000
    1.5542   -2.5792    0.0000 C   0  0  0  0  0  0  0  0  0  0  0  0
    2.8708   -1.8458    0.0000 O   0  0  0  0  0  0  0  0  0  0  0  0
    0.2583   -1.7417    0.0000 C   0  0  2  0  0  0  0  0  0  0  0  0
    0.1958   -0.1875    0.0000 C   0  0  0  0  0  0  0  0  0  0  0  0
    1.5542   -4.0833    0.0000 O   0  0  0  0  0  0  0  0  0  0  0  0
   -0.9167   -2.6500    0.0000 N   0  0  0  0  0  0  0  0  0  0  0  0
   -1.2542    0.2417    0.0000 C   0  0  0  0  0  0  0  0  0  0  0  0
   -0.5625    4.1875    0.0000 N   0  0  0  0  0  0  0  0  0  0  0  0
   -2.7833    2.2375    0.0000 O   0  0  0  0  0  0  0  0  0  0  0  0
   -1.3125    1.7875    0.0000 C   0  0  3  0  0  0  0  0  0  0  0  0
   -0.0875    2.7167    0.0000 C   0  0  0  0  0  0  0  0  0  0  0  0
  2  1  2  0  0  0  0
  3  1  1  0  0  0  0
  4  3  1  0  0  0  0
  5  1  1  0  0  0  0
  3  6  1  1  0  0  0
  7  4  1  0  0  0  0
  8 11  1  0  0  0  0
  9 10  1  0  0  0  0
 10  7  1  0  0  0  0
 11 10  1  0  0  0  0
M  END
>  <MOLREGNO> (68)
68

>  <MOLNAME> (68)
(L) Hydroxylysine

>  <CORP_ID> (68)
MUSE00000068

>  <DATE> (68)
1/1/91

$$$$

  -ISIS-  04269506302D

 11 11  0  0  1  0  0  0  0  0  1 V2000
    1.5375    3.5917    0.0000 N   0  0  0  0  0  0  0  0  0  0  0  0
    0.4875   -1.8000    0.0000 C   0  0  0  0  0  0  0  0  0  0  0  0
    0.1667    1.4792    0.0000 C   0  0  0  0  0  0  0  0  0  0  0  0
    1.6500    1.1083    0.0000 N   0  0  0  0  0  0  0  0  0  0  0  0
   -1.0250    0.4917    0.0000 C   0  0  0  0  0  0  0  0  0  0  0  0
    2.4958    2.4167    0.0000 C   0  0  0  0  0  0  0  0  0  0  0  0
   -0.9542   -0.8500    0.0000 C   0  0  2  0  0  0  0  0  0  0  0  0
    0.0750    3.0250    0.0000 C   0  0  0  0  0  0  0  0  0  0  0  0
    1.9625   -0.9792    0.0000 O   0  0  0  0  0  0  0  0  0  0  0  0
   -2.3000   -1.8792    0.0000 N   0  0  0  0  0  0  0  0  0  0  0  0
    0.4875   -3.4833    0.0000 O   0  0  0  0  0  0  0  0  0  0  0  0
  2  7  1  0  0  0  0
  3  8  2  0  0  0  0
  4  6  1  0  0  0  0
  5  3  1  0  0  0  0
  6  1  2  0  0  0  0
  7  5  1  0  0  0  0
  8  1  1  0  0  0  0
  9  2  2  0  0  0  0
  7 10  1  1  0  0  0
 11  2  1  0  0  0  0
  3  4  1  0  0  0  0
M  END
>  <MOLREGNO> (72)
72

>  <MOLNAME> (72)
(L) Histidine

>  <CORP_ID> (72)
MUSE00000072

>  <DATE> (72)
1/1/91

$$$$

  -ISIS-  04269506302D

 12 11  0  0  1  0  0  0  0  0  1 V2000
   -3.1375    1.1833    0.0000 C   0  0  0  0  0  0  0  0  0  0  0  0
    3.3375   -0.5292    0.0000 C   0  0  0  0  0  0  0  0  0  0  0  0
   -2.9542   -0.3250    0.0000 N   0  0  0  0  0  0  0  0  0  0  0  0
    4.6500    0.3000    0.0000 O   0  0  0  0  0  0  0  0  0  0  0  0
   -1.9083    2.1208    0.0000 N   0  0  0  0  0  0  0  0  0  0  0  0
    1.9750    0.1917    0.0000 C   0  0  1  0  0  0  0  0  0  0  0  0
   -4.5667    1.7958    0.0000 N   0  0  0  0  0  0  0  0  0  0  0  0
    3.4000   -2.0750    0.0000 O   0  0  0  0  0  0  0  0  0  0  0  0
    0.6500   -0.6083    0.0000 N   0  0  0  0  0  0  0  0  0  0  0  0
   -0.5625    1.3208    0.0000 C   0  0  0  0  0  0  0  0  0  0  0  0
    1.9750    1.7333    0.0000 C   0  0  0  0  0  0  0  0  0  0  0  0
    0.5583    2.3625    0.0000 C   0  0  0  0  0  0  0  0  0  0  0  0
  2  6  1  0  0  0  0
  3  1  2  0  0  0  0
  4  2  2  0  0  0  0
  5  1  1  0  0  0  0
  6 11  1  0  0  0  0
  7  1  1  0  0  0  0
  8  2  1  0  0  0  0
  6  9  1  1  0  0  0
 10  5  1  0  0  0  0
 11 12  1  0  0  0  0
 12 10  1  0  0  0  0
M  END
>  <MOLREGNO> (73)
73

>  <MOLNAME> (73)
(L) Arginine

>  <CORP_ID> (73)
MUSE00000073

>  <DATE> (73)
1/1/91

$$$$

  -ISIS-  04269506302D

 14 13  0  0  1  0  0  0  0  0  1 V2000
    3.7417    2.7500    0.0000 C   0  0  0  0  0  0  0  0  0  0  0  0
   -3.6583   -2.6458    0.0000 C   0  0  0  0  0  0  0  0  0  0  0  0
   -2.7667   -1.3875    0.0000 C   0  0  2  0  0  0  0  0  0  0  0  0
    2.8500    1.4917    0.0000 C   0  0  2  0  0  0  0  0  0  0  0  0
    3.0542    4.0917    0.0000 O   0  0  0  0  0  0  0  0  0  0  0  0
   -2.9708   -3.9875    0.0000 O   0  0  0  0  0  0  0  0  0  0  0  0
   -1.2333   -1.3875    0.0000 C   0  0  0  0  0  0  0  0  0  0  0  0
    1.3083    1.4917    0.0000 C   0  0  0  0  0  0  0  0  0  0  0  0
   -3.6375   -0.1625    0.0000 N   0  0  0  0  0  0  0  0  0  0  0  0
    3.7167    0.2708    0.0000 N   0  0  0  0  0  0  0  0  0  0  0  0
   -0.7125    0.0500    0.0000 S   0  0  0  0  0  0  0  0  0  0  0  0
    0.7958    0.0500    0.0000 S   0  0  0  0  0  0  0  0  0  0  0  0
   -5.1583   -2.5917    0.0000 O   0  0  0  0  0  0  0  0  0  0  0  0
    5.2375    2.7000    0.0000 O   0  0  0  0  0  0  0  0  0  0  0  0
  2  3  1  0  0  0  0
  3  7  1  0  0  0  0
  4  1  1  0  0  0  0
  5  1  2  0  0  0  0
  6  2  2  0  0  0  0
  7 11  1  0  0  0  0
  8  4  1  0  0  0  0
  3  9  1  1  0  0  0
  4 10  1  1  0  0  0
 11 12  1  0  0  0  0
 12  8  1  0  0  0  0
 13  2  1  0  0  0  0
 14  1  1  0  0  0  0
M  END
>  <MOLREGNO> (76)
76

>  <MOLNAME> (76)
(L) Cystine

>  <CORP_ID> (76)
MUSE00000076

>  <DATE> (76)
1/1/91

$$$$

  -ISIS-  04269506302D

  9  9  0  0  0  0  0  0  0  0  1 V2000
    1.3000    0.8125    0.0000 C   0  0  0  0  0  0  0  0  0  0  0  0
   -0.0250    0.0458    0.0000 C   0  0  0  0  0  0  0  0  0  0  0  0
    1.3083    2.3583    0.0000 O   0  0  0  0  0  0  0  0  0  0  0  0
   -1.3583   -2.2500    0.0000 N   0  0  0  0  0  0  0  0  0  0  0  0
    2.6208    0.0375    0.0000 O   0  0  0  0  0  0  0  0  0  0  0  0
   -0.0250   -1.4708    0.0000 C   0  0  0  0  0  0  0  0  0  0  0  0
   -1.3875    0.8292    0.0000 C   0  0  0  0  0  0  0  0  0  0  0  0
   -2.7000   -1.4917    0.0000 C   0  0  0  0  0  0  0  0  0  0  0  0
   -2.7333    0.0250    0.0000 C   0  0  0  0  0  0  0  0  0  0  0  0
  2  1  1  0  0  0  0
  3  1  2  0  0  0  0
  4  6  1  0  0  0  0
  5  1  1  0  0  0  0
  6  2  2  0  0  0  0
  7  2  1  0  0  0  0
  8  9  1  0  0  0  0
  9  7  2  0  0  0  0
  4  8  2  0  0  0  0
M  END
>  <MOLREGNO> (98)
98

>  <MOLNAME> (98)
Niacin

>  <CORP_ID> (98)
MUSE00000098

>  <DATE> (98)
1/1/91

$$$$

  -ISIS-  04269506302D

 10 10  0  0  0  0  0  0  0  0  1 V2000
    1.9792   -0.0833    0.0000 C   0  0  0  0  0  0  0  0  0  0  0  0
    0.8125   -1.0917    0.0000 N   0  0  0  0  0  0  0  0  0  0  0  0
    1.6875    1.4208    0.0000 S   0  0  0  0  0  0  0  0  0  0  0  0
   -3.2583   -1.0917    0.0000 N   0  0  0  0  0  0  0  0  0  0  0  0
    3.4458   -0.5875    0.0000 N   0  0  0  0  0  0  0  0  0  0  0  0
   -0.6417   -0.5875    0.0000 C   0  0  0  0  0  0  0  0  0  0  0  0
   -1.8042   -1.6000    0.0000 C   0  0  0  0  0  0  0  0  0  0  0  0
   -3.5583    0.4083    0.0000 C   0  0  0  0  0  0  0  0  0  0  0  0
   -0.9333    0.9167    0.0000 C   0  0  0  0  0  0  0  0  0  0  0  0
   -2.3875    1.4208    0.0000 C   0  0  0  0  0  0  0  0  0  0  0  0
  2  1  1  0  0  0  0
  3  1  2  0  0  0  0
  4  7  2  0  0  0  0
  5  1  1  0  0  0  0
  6  2  1  0  0  0  0
  7  6  1  0  0  0  0
  8 10  2  0  0  0  0
  9  6  2  0  0  0  0
 10  9  1  0  0  0  0
  4  8  1  0  0  0  0
M  END
>  <MOLREGNO> (115)
115

>  <MOLNAME> (115)
3-Pyridylthiourea

>  <CORP_ID> (115)
MUSE00100482

>  <DATE> (115)
1/1/91

$$$$

  -ISIS-  04269506302D

 12 11  0  0  0  0  0  0  0  0  1 V2000
    1.3708    0.4333    0.0000 C   0  0  3  0  0  0  0  0  0  0  0  0
    2.6917    1.2417    0.0000 C   0  0  0  0  0  0  0  0  0  0  0  0
    2.0292   -0.8500    0.0000 C   0  0  3  0  0  0  0  0  0  0  0  0
    2.6917    2.7875    0.0000 O   0  0  0  0  0  0  0  0  0  0  0  0
    0.5208   -0.8500    0.0000 N   0  0  0  0  0  0  0  0  0  0  0  0
    4.0917    0.5250    0.0000 O   0  0  0  0  0  0  0  0  0  0  0  0
    1.7917   -2.6750    0.0000 F   0  0  0  0  0  0  0  0  0  0  0  0
    3.1917   -2.2167    0.0000 F   0  0  0  0  0  0  0  0  0  0  0  0
    0.0250    1.2417    0.0000 C   0  0  0  0  0  0  0  0  0  0  0  0
   -4.0042    0.4333    0.0000 N   0  0  0  0  0  0  0  0  0  0  0  0
   -2.6583    1.2417    0.0000 C   0  0  0  0  0  0  0  0  0  0  0  0
   -1.3333    0.4333    0.0000 C   0  0  0  0  0  0  0  0  0  0  0  0
  2  1  1  0  0  0  0
  3  1  1  0  0  0  0
  4  2  2  0  0  0  0
  5  1  1  0  0  0  0
  6  2  1  0  0  0  0
  7  3  1  0  0  0  0
  8  3  1  0  0  0  0
  9  1  1  0  0  0  0
 10 11  1  0  0  0  0
 11 12  1  0  0  0  0
 12  9  1  0  0  0  0
M  END
>  <ACTIVITY> (151)
Antineoplastic;protozoacide;ornithine decarboxylase inhibitor

>  <MOLREGNO> (151)
151

>  <MOLNAME> (151)
Eflornithine hydrochloride,DFMO,RMI-71782,MDL-71782

>  <CORP_ID> (151)
MUSE33300011

>  <DATE> (151)
1/1/91

$$$$

  -ISIS-  04269506302D

 11 12  0  0  0  0  0  0  0  0  1 V2000
    0.9125    0.0625    0.0000 C   0  0  0  0  0  0  0  0  0  0  0  0
   -0.4208    0.8333    0.0000 C   0  0  0  0  0  0  0  0  0  0  0  0
    0.9125   -1.4875    0.0000 C   0  0  0  0  0  0  0  0  0  0  0  0
   -1.7625    0.0625    0.0000 N   0  0  0  0  0  0  0  0  0  0  0  0
   -0.4208   -2.2667    0.0000 C   0  0  0  0  0  0  0  0  0  0  0  0
   -1.7625   -1.4875    0.0000 C   0  0  0  0  0  0  0  0  0  0  0  0
    2.3458    0.5208    0.0000 N   0  0  0  0  0  0  0  0  0  0  0  0
    2.3792   -1.9375    0.0000 N   0  0  0  0  0  0  0  0  0  0  0  0
    3.2708   -0.6500    0.0000 C   0  0  0  0  0  0  0  0  0  0  0  0
   -0.4208    2.3500    0.0000 O   0  0  0  0  0  0  0  0  0  0  0  0
   -3.0792   -2.2500    0.0000 N   0  0  0  0  0  0  0  0  0  0  0  0
  2  1  1  0  0  0  0
  3  1  2  0  0  0  0
  4  2  1  0  0  0  0
  5  3  1  0  0  0  0
  6  5  2  0  0  0  0
  7  1  1  0  0  0  0
  8  3  1  0  0  0  0
  9  7  2  0  0  0  0
 10  2  2  0  0  0  0
 11  6  1  0  0  0  0
  8  9  1  0  0  0  0
  4  6  1  0  0  0  0
M  END
>  <MOLREGNO> (157)
157

>  <MOLNAME> (157)
Dezaguanine,CI-809,NSC-261726,3-DG,ICN-4221

>  <CORP_ID> (157)
MUSE33300017

>  <DATE> (157)
1/1/91

>  <ACTIVITY> (157)
Antineoplastic,antiviral

$$$$

  -ISIS-  04269506302D

  9  8  0  0  0  0  0  0  0  0  1 V2000
    2.5625    0.5208    0.0000 C   0  0  0  0  0  0  0  0  0  0  0  0
    2.5167    2.0417    0.0000 O   0  0  0  0  0  0  0  0  0  0  0  0
   -2.7667    0.3250    0.0000 C   0  0  0  0  0  0  0  0  0  0  0  0
   -4.0833   -0.4750    0.0000 C   0  0  0  0  0  0  0  0  0  0  0  0
    1.2833   -0.3125    0.0000 C   0  0  0  0  0  0  0  0  0  0  0  0
    3.9667   -0.1167    0.0000 O   0  0  0  0  0  0  0  0  0  0  0  0
   -1.4292   -1.9333    0.0000 N   0  0  0  0  0  0  0  0  0  0  0  0
   -1.4125   -0.3958    0.0000 C   0  0  3  0  0  0  0  0  0  0  0  0
   -0.1333    0.4042    0.0000 C   0  0  0  0  0  0  0  0  0  0  0  0
  2  1  2  0  0  0  0
  3  8  1  0  0  0  0
  4  3  2  0  0  0  0
  5  1  1  0  0  0  0
  6  1  1  0  0  0  0
  7  8  1  0  0  0  0
  8  9  1  0  0  0  0
  9  5  1  0  0  0  0
M  END
>  <MOLREGNO> (214)
214

>  <MOLNAME> (214)
Vigabatrin, MDL-71754, GVG, RMI-71754

>  <CORP_ID> (214)
MUSE33300074

>  <DATE> (214)
1/1/91

>  <ACTIVITY> (214)
Anticonvulsant

$$$$

  -ISIS-  04269506302D

 11 10  0  0  1  0  0  0  0  0  1 V2000
    1.2875    0.9833    0.0000 C   0  0  0  0  0  0  0  0  0  0  0  0
   -0.2250    0.4125    0.0000 N   0  0  0  0  0  0  0  0  0  0  0  0
   -1.5917   -1.8792    0.0000 C   0  0  0  0  0  0  0  0  0  0  0  0
   -0.2500   -1.1667    0.0000 C   0  0  2  0  0  0  0  0  0  0  0  0
    2.4333   -0.0208    0.0000 O   0  0  0  0  0  0  0  0  0  0  0  0
   -1.5917   -3.4417    0.0000 O   0  0  0  0  0  0  0  0  0  0  0  0
    1.6250    2.4750    0.0000 C   0  0  1  0  0  0  0  0  0  0  0  0
   -2.9333   -1.1042    0.0000 O   0  0  0  0  0  0  0  0  0  0  0  0
    0.4542    3.5458    0.0000 N   0  0  0  0  0  0  0  0  0  0  0  0
    1.0708   -1.9625    0.0000 C   0  0  0  0  0  0  0  0  0  0  0  0
    3.1292    2.9333    0.0000 C   0  0  0  0  0  0  0  0  0  0  0  0
  2  1  1  0  0  0  0
  3  4  1  0  0  0  0
  4  2  1  1  0  0  0
  5  1  2  0  0  0  0
  6  3  2  0  0  0  0
  7  1  1  0  0  0  0
  8  3  1  0  0  0  0
  7  9  1  1  0  0  0
 10  4  1  0  0  0  0
 11  7  1  0  0  0  0
M  END
>  <MOLREGNO> (227)
227

>  <MOLNAME> (227)
L-Alanyl-L-alanine

>  <CORP_ID> (227)
MUSE00500107

>  <DATE> (227)
1/1/91

$$$$

  -ISIS-  04269506302D

 11 10  0  0  1  0  0  0  0  0  1 V2000
    1.2875    0.9833    0.0000 C   0  0  0  0  0  0  0  0  0  0  0  0
   -0.2250    0.4125    0.0000 N   0  0  0  0  0  0  0  0  0  0  0  0
   -1.5917   -1.8750    0.0000 C   0  0  0  0  0  0  0  0  0  0  0  0
   -0.2542   -1.1667    0.0000 C   0  0  1  0  0  0  0  0  0  0  0  0
    2.4333   -0.0167    0.0000 O   0  0  0  0  0  0  0  0  0  0  0  0
   -1.5917   -3.4375    0.0000 O   0  0  0  0  0  0  0  0  0  0  0  0
    1.6250    2.4750    0.0000 C   0  0  2  0  0  0  0  0  0  0  0  0
   -2.9375   -1.1083    0.0000 O   0  0  0  0  0  0  0  0  0  0  0  0
    0.4583    3.5458    0.0000 N   0  0  0  0  0  0  0  0  0  0  0  0
    1.0708   -1.9625    0.0000 C   0  0  0  0  0  0  0  0  0  0  0  0
    3.1292    2.9292    0.0000 C   0  0  0  0  0  0  0  0  0  0  0  0
  2  1  1  0  0  0  0
  3  4  1  0  0  0  0
  4  2  1  6  0  0  0
  5  1  2  0  0  0  0
  6  3  2  0  0  0  0
  7  1  1  0  0  0  0
  8  3  1  0  0  0  0
  7  9  1  6  0  0  0
 10  4  1  0  0  0  0
 11  7  1  0  0  0  0
M  END
>  <MOLREGNO> (228)
228

>  <MOLNAME> (228)
D-Alanyl-D-alanine

>  <CORP_ID> (228)
MUSE00500108

>  <DATE> (228)
1/1/91

$$$$

  -ISIS-  04269506302D

 11 10  0  0  1  0  0  0  0  0  1 V2000
    1.2875    0.9833    0.0000 C   0  0  0  0  0  0  0  0  0  0  0  0
   -0.2250    0.4125    0.0000 N   0  0  0  0  0  0  0  0  0  0  0  0
   -1.5917   -1.8750    0.0000 C   0  0  0  0  0  0  0  0  0  0  0  0
   -0.2542   -1.1667    0.0000 C   0  0  1  0  0  0  0  0  0  0  0  0
    2.4333   -0.0167    0.0000 O   0  0  0  0  0  0  0  0  0  0  0  0
   -1.5917   -3.4375    0.0000 O   0  0  0  0  0  0  0  0  0  0  0  0
    1.6250    2.4750    0.0000 C   0  0  1  0  0  0  0  0  0  0  0  0
   -2.9375   -1.1083    0.0000 O   0  0  0  0  0  0  0  0  0  0  0  0
    0.4583    3.5458    0.0000 N   0  0  0  0  0  0  0  0  0  0  0  0
    1.0708   -1.9625    0.0000 C   0  0  0  0  0  0  0  0  0  0  0  0
    3.1292    2.9292    0.0000 C   0  0  0  0  0  0  0  0  0  0  0  0
  2  1  1  0  0  0  0
  3  4  1  0  0  0  0
  4  2  1  6  0  0  0
  5  1  2  0  0  0  0
  6  3  2  0  0  0  0
  7  1  1  0  0  0  0
  8  3  1  0  0  0  0
  7  9  1  1  0  0  0
 10  4  1  0  0  0  0
 11  7  1  0  0  0  0
M  END
>  <MOLREGNO> (229)
229

>  <MOLNAME> (229)
D-Alanyl-L-alanine

>  <CORP_ID> (229)
MUSE00500109

>  <DATE> (229)
1/1/91

$$$$

  -ISIS-  04269506302D

 11 10  0  0  0  0  0  0  0  0  1 V2000
    1.2417    0.2708    0.0000 C   0  0  0  0  0  0  0  0  0  0  0  0
   -0.3792    0.2708    0.0000 N   0  0  0  0  0  0  0  0  0  0  0  0
   -2.4708   -1.3958    0.0000 C   0  0  0  0  0  0  0  0  0  0  0  0
   -0.9667   -1.2042    0.0000 C   0  0  3  0  0  0  0  0  0  0  0  0
    1.9542   -1.0750    0.0000 O   0  0  0  0  0  0  0  0  0  0  0  0
   -3.0208   -2.8542    0.0000 O   0  0  0  0  0  0  0  0  0  0  0  0
    2.0792    1.5458    0.0000 C   0  0  3  0  0  0  0  0  0  0  0  0
   -3.4542   -0.1917    0.0000 O   0  0  0  0  0  0  0  0  0  0  0  0
    1.3667    2.9583    0.0000 N   0  0  0  0  0  0  0  0  0  0  0  0
   -0.0042   -2.4125    0.0000 C   0  0  0  0  0  0  0  0  0  0  0  0
    3.6500    1.4375    0.0000 C   0  0  0  0  0  0  0  0  0  0  0  0
  2  1  1  0  0  0  0
  3  4  1  0  0  0  0
  4  2  1  0  0  0  0
  5  1  2  0  0  0  0
  6  3  2  0  0  0  0
  7  1  1  0  0  0  0
  8  3  1  0  0  0  0
  9  7  1  0  0  0  0
 10  4  1  0  0  0  0
 11  7  1  0  0  0  0
M  END
>  <MOLREGNO> (230)
230

>  <MOLNAME> (230)
Alanylalanine

>  <CORP_ID> (230)
MUSE00500110

>  <DATE> (230)
1/1/91

$$$$

  -ISIS-  04269506302D

  9  7  0  0  0  0  0  0  0  0  2 V2000
   -0.0292   -1.6792    0.0000 C   0  0  0  0  0  0  0  0  0  0  0  0
    1.3042   -0.9667    0.0000 C   0  0  0  0  0  0  0  0  0  0  0  0
   -1.2917   -0.9292    0.0000 C   0  0  0  0  0  0  0  0  0  0  0  0
    1.3708    0.5667    0.0000 O   0  5  0  0  0  0  0  0  0  0  0  0
   -1.2917    0.5833    0.0000 O   0  0  0  0  0  0  0  0  0  0  0  0
    3.0833    1.4250    0.0000 Li  0  3  0  0  0  0  0  0  0  0  0  0
    2.6292   -1.8292    0.0000 C   0  0  0  0  0  0  0  0  0  0  0  0
   -2.6250   -1.7208    0.0000 C   0  0  0  0  0  0  0  0  0  0  0  0
   -3.8125   -0.7083    0.0000 C   0  0  0  0  0  0  0  0  0  0  0  0
  2  1  2  0  0  0  0
  3  1  1  0  0  0  0
  4  2  1  0  0  0  0
  5  3  2  0  0  0  0
  7  2  1  0  0  0  0
  8  3  1  0  0  0  0
  9  8  1  0  0  0  0
M  CHG  2   4  -1   6   1
M  END
>  <MOLREGNO> (231)
231

>  <MOLNAME> (231)
Hexan-1,4-dione lithium enolate

>  <CORP_ID> (231)
MUSE00500111

>  <DATE> (231)
1/1/91

$$$$

  -ISIS-  04269506302D

  9  7  0  0  0  0  0  0  0  0  2 V2000
   -0.0042   -1.8167    0.0000 C   0  0  0  0  0  0  0  0  0  0  0  0
    1.3208   -1.0958    0.0000 C   0  0  0  0  0  0  0  0  0  0  0  0
   -1.2750   -1.0667    0.0000 C   0  0  0  0  0  0  0  0  0  0  0  0
    1.3917    0.4333    0.0000 O   0  5  0  0  0  0  0  0  0  0  0  0
   -1.2750    0.4500    0.0000 O   0  0  0  0  0  0  0  0  0  0  0  0
    3.3750    1.5625    0.0000 K   0  3  0  0  0  0  0  0  0  0  0  0
    2.6500   -1.9667    0.0000 C   0  0  0  0  0  0  0  0  0  0  0  0
   -2.6042   -1.8458    0.0000 C   0  0  0  0  0  0  0  0  0  0  0  0
   -3.7958   -0.8458    0.0000 C   0  0  0  0  0  0  0  0  0  0  0  0
  2  1  2  0  0  0  0
  3  1  1  0  0  0  0
  4  2  1  0  0  0  0
  5  3  2  0  0  0  0
  7  2  1  0  0  0  0
  8  3  1  0  0  0  0
  9  8  1  0  0  0  0
M  CHG  2   4  -1   6   1
M  END
>  <MOLREGNO> (232)
232

>  <MOLNAME> (232)
Hexan-1,4-dione potassium enolate

>  <CORP_ID> (232)
MUSE00500112

>  <DATE> (232)
1/1/91

$$$$

  -ISIS-  04269506302D

  7  7  0  0  0  0  0  0  0  0  1 V2000
    0.0833    0.2458    0.0000 C   0  0  0  0  0  0  0  0  0  0  0  0
   -1.1542    1.1833    0.0000 O   0  0  0  0  0  0  0  0  0  0  0  0
    1.5542    0.7000    0.0000 C   0  0  0  0  0  0  0  0  0  0  0  0
   -0.4417   -1.3625    0.0000 C   0  0  0  0  0  0  0  0  0  0  0  0
   -2.4833    0.2292    0.0000 C   0  0  0  0  0  0  0  0  0  0  0  0
   -1.9792   -1.3667    0.0000 C   0  0  0  0  0  0  0  0  0  0  0  0
    2.4792   -0.5250    0.0000 C   0  0  0  0  0  0  0  0  0  0  0  0
  2  1  1  0  0  0  0
  3  1  1  0  0  0  0
  4  1  2  0  0  0  0
  5  2  1  0  0  0  0
  6  4  1  0  0  0  0
  7  3  2  0  0  0  0
  6  5  2  0  0  0  0
M  END
>  <MOLREGNO> (233)
233

>  <MOLNAME> (233)
2-Vinyl furan

>  <CORP_ID> (233)
MUSE00500113

>  <DATE> (233)
1/1/91

$$$$

  -ISIS-  04269506302D

  7  6  0  0  0  0  0  0  0  0  1 V2000
   -2.5542    0.0208    0.0000 C   0  0  0  0  0  0  0  0  0  0  0  0
    2.5583    0.0000    0.0000 C   0  0  0  0  0  0  0  0  0  0  0  0
   -3.8792    0.8083    0.0000 C   0  0  0  0  0  0  0  0  0  0  0  0
    3.8750    0.8125    0.0000 C   0  0  0  0  0  0  0  0  0  0  0  0
   -1.2417   -0.7875    0.0000 C   0  0  0  0  0  0  0  0  0  0  0  0
    1.2500   -0.8083    0.0000 C   0  0  0  0  0  0  0  0  0  0  0  0
    0.0000    0.1167    0.0000 O   0  0  0  0  0  0  0  0  0  0  0  0
  2  6  1  0  0  0  0
  3  1  3  0  0  0  0
  4  2  3  0  0  0  0
  5  1  1  0  0  0  0
  6  7  1  0  0  0  0
  7  5  1  0  0  0  0
M  END
>  <MOLREGNO> (234)
234

>  <MOLNAME> (234)
bis-(2-Propynyl)ether

>  <CORP_ID> (234)
MUSE00500114

>  <DATE> (234)
1/1/91

$$$$

  -ISIS-  04269506302D

 14 14  0  0  0  0  0  0  0  0  2 V2000
    2.6917    0.8125    0.0000 S   0  0  3  0  0  0  0  0  0  0  0  0
    1.3583    0.0417    0.0000 C   0  0  0  0  0  0  0  0  0  0  0  0
   -2.6083    0.8167    0.0000 N   0  3  0  0  0  0  0  0  0  0  0  0
    0.0250    0.8083    0.0000 C   0  0  0  0  0  0  0  0  0  0  0  0
   -1.2750    0.0667    0.0000 C   0  0  0  0  0  0  0  0  0  0  0  0
    1.3583   -1.4750    0.0000 C   0  0  0  0  0  0  0  0  0  0  0  0
    3.4542   -0.4542    0.0000 O   0  0  0  0  0  0  0  0  0  0  0  0
    1.9125    2.2083    0.0000 O   0  0  0  0  0  0  0  0  0  0  0  0
   -3.9417    0.0667    0.0000 O   0  5  0  0  0  0  0  0  0  0  0  0
   -2.6083    2.3542    0.0000 O   0  0  0  0  0  0  0  0  0  0  0  0
    4.0208    1.5875    0.0000 O   0  0  0  0  0  0  0  0  0  0  0  0
   -1.2750   -1.4708    0.0000 C   0  0  0  0  0  0  0  0  0  0  0  0
    0.0125   -2.2375    0.0000 C   0  0  0  0  0  0  0  0  0  0  0  0
    2.6833   -2.2500    0.0000 O   0  0  0  0  0  0  0  0  0  0  0  0
  2  1  1  0  0  0  0
  3  5  1  0  0  0  0
  4  2  1  0  0  0  0
  5  4  2  0  0  0  0
  6  2  2  0  0  0  0
  7  1  2  0  0  0  0
  8  1  2  0  0  0  0
  9  3  1  0  0  0  0
 10  3  2  0  0  0  0
 11  1  1  0  0  0  0
 12 13  2  0  0  0  0
 13  6  1  0  0  0  0
 14  6  1  0  0  0  0
  5 12  1  0  0  0  0
M  CHG  2   3   1   9  -1
M  END
>  <MOLREGNO> (246)
246

>  <MOLNAME> (246)
2-Hydroxy-5-nitrobenzenesulfonic acid

>  <CORP_ID> (246)
MUSE00500126

>  <DATE> (246)
1/1/91

$$$$

  -ISIS-  04269506302D

 12 12  0  0  0  0  0  0  0  0  1 V2000
    2.0333    0.8750    0.0000 S   0  0  3  0  0  0  0  0  0  0  0  0
    0.6833    0.0917    0.0000 C   0  0  0  0  0  0  0  0  0  0  0  0
   -0.6458    0.8708    0.0000 C   0  0  0  0  0  0  0  0  0  0  0  0
    0.6833   -1.4458    0.0000 C   0  0  0  0  0  0  0  0  0  0  0  0
    2.6875   -0.5125    0.0000 O   0  0  0  0  0  0  0  0  0  0  0  0
    1.3792    2.3333    0.0000 O   0  0  0  0  0  0  0  0  0  0  0  0
    3.4333    1.5625    0.0000 O   0  0  0  0  0  0  0  0  0  0  0  0
   -0.6458   -2.2250    0.0000 C   0  0  0  0  0  0  0  0  0  0  0  0
   -1.9958    0.0958    0.0000 C   0  0  0  0  0  0  0  0  0  0  0  0
   -1.9917   -1.4458    0.0000 C   0  0  0  0  0  0  0  0  0  0  0  0
    2.0333   -2.2292    0.0000 O   0  0  0  0  0  0  0  0  0  0  0  0
   -3.3500    0.8708    0.0000 O   0  0  0  0  0  0  0  0  0  0  0  0
  2  1  1  0  0  0  0
  3  2  1  0  0  0  0
  4  2  2  0  0  0  0
  5  1  2  0  0  0  0
  6  1  2  0  0  0  0
  7  1  1  0  0  0  0
  8  4  1  0  0  0  0
  9  3  2  0  0  0  0
 10  8  2  0  0  0  0
 11  4  1  0  0  0  0
 12  9  1  0  0  0  0
  9 10  1  0  0  0  0
M  END
>  <MOLREGNO> (249)
249

>  <MOLNAME> (249)
Hydroquinone-2-sulfonic acid

>  <CORP_ID> (249)
MUSE00500129

>  <DATE> (249)
1/1/91

$$$$

  -ISIS-  04269506302D

  6  5  0  0  0  0  0  0  0  0  1 V2000
   -1.8833    0.5708    0.0000 C   0  0  0  0  0  0  0  0  0  0  0  0
    1.8875   -0.5667    0.0000 C   0  0  0  0  0  0  0  0  0  0  0  0
   -0.6333   -0.4000    0.0000 C   0  0  0  0  0  0  0  0  0  0  0  0
    0.6875    0.3917    0.0000 C   0  0  0  0  0  0  0  0  0  0  0  0
   -3.1708   -0.2333    0.0000 C   0  0  0  0  0  0  0  0  0  0  0  0
    3.1667    0.2625    0.0000 C   0  0  0  0  0  0  0  0  0  0  0  0
  2  4  1  0  0  0  0
  3  1  1  0  0  0  0
  4  3  1  0  0  0  0
  5  1  1  0  0  0  0
  6  2  1  0  0  0  0
M  END
>  <MOLREGNO> (296)
296

>  <MOLNAME> (296)
Hexane

>  <CORP_ID> (296)
MUSE00500038

>  <DATE> (296)
4/17/91

$$$$

  -ISIS-  04269506302D

  8  6  0  0  0  0  0  0  0  0  1 V2000
    0.2375   -0.3792    0.0000 P   0  0  3  0  0  0  0  0  0  0  0  0
   -2.2792   -0.3042    0.0000 Ni  0  0  0  0  0  0  0  0  0  0  0  0
    0.6958   -1.8458    0.0000 C   0  0  0  0  0  0  0  0  0  0  0  0
    1.7750   -0.3000    0.0000 C   0  0  0  0  0  0  0  0  0  0  0  0
    0.6000    1.1083    0.0000 C   0  0  0  0  0  0  0  0  0  0  0  0
    2.2083   -2.1750    0.0000 C   0  0  0  0  0  0  0  0  0  0  0  0
    2.4708    1.0667    0.0000 C   0  0  0  0  0  0  0  0  0  0  0  0
   -0.5042    2.1792    0.0000 C   0  0  0  0  0  0  0  0  0  0  0  0
  3  1  1  0  0  0  0
  4  1  1  0  0  0  0
  5  1  1  0  0  0  0
  6  3  1  0  0  0  0
  7  4  1  0  0  0  0
  8  5  1  0  0  0  0
M  END
>  <MOLREGNO> (320)
320

>  <MOLNAME> (320)
Nickel triethylphosphine

>  <CORP_ID> (320)
MUSE00500064

>  <DATE> (320)
4/17/91

$$$$

  -ISIS-  04269506302D

 11 10  0  0  0  0  0  0  0  0  1 V2000
    0.1167    0.5583    0.0000 P   0  0  3  0  0  0  0  0  0  0  0  0
    0.4125   -0.9417    0.0000 N   0  0  3  0  0  0  0  0  0  0  0  0
    1.6500    0.5208    0.0000 N   0  0  3  0  0  0  0  0  0  0  0  0
   -1.3250    0.0500    0.0000 N   0  0  3  0  0  0  0  0  0  0  0  0
    0.1167    2.0958    0.0000 O   0  0  0  0  0  0  0  0  0  0  0  0
   -0.4625   -2.2708    0.0000 C   0  0  0  0  0  0  0  0  0  0  0  0
    1.8250   -1.5583    0.0000 C   0  0  0  0  0  0  0  0  0  0  0  0
    2.4917   -0.7458    0.0000 C   0  0  0  0  0  0  0  0  0  0  0  0
    2.5500    1.7875    0.0000 C   0  0  0  0  0  0  0  0  0  0  0  0
   -2.5542    0.9542    0.0000 C   0  0  0  0  0  0  0  0  0  0  0  0
   -1.7250   -1.4417    0.0000 C   0  0  0  0  0  0  0  0  0  0  0  0
  2  1  1  0  0  0  0
  3  1  1  0  0  0  0
  4  1  1  0  0  0  0
  5  1  2  0  0  0  0
  6  2  1  0  0  0  0
  7  2  1  0  0  0  0
  8  3  1  0  0  0  0
  9  3  1  0  0  0  0
 10  4  1  0  0  0  0
 11  4  1  0  0  0  0
M  END
>  <MOLREGNO> (328)
328

>  <MOLNAME> (328)
Hexamethylphosphoramide

>  <CORP_ID> (328)
MUSE00500072

>  <DATE> (328)
4/17/91

$$$$

  -ISIS-  04269506302D

  9  9  0  0  0  0  0  0  0  0  1 V2000
   -0.3833    0.4375    0.0000 C   0  0  0  0  0  0  0  0  0  0  0  0
   -1.8542    0.9083    0.0000 C   0  0  0  0  0  0  0  0  0  0  0  0
    0.8750    1.3750    0.0000 O   0  0  0  0  0  0  0  0  0  0  0  0
    0.1000   -1.0750    0.0000 C   0  0  0  0  0  0  0  0  0  0  0  0
   -3.0208   -0.1500    0.0000 O   0  0  0  0  0  0  0  0  0  0  0  0
    2.1542    0.4500    0.0000 C   0  0  0  0  0  0  0  0  0  0  0  0
    1.6417   -1.0750    0.0000 C   0  0  0  0  0  0  0  0  0  0  0  0
   -2.1792    2.4167    0.0000 O   0  0  0  0  0  0  0  0  0  0  0  0
   -3.7375    2.6167    0.0000 C   0  0  0  0  0  0  0  0  0  0  0  0
  2  1  1  0  0  0  0
  3  1  1  0  0  0  0
  4  1  2  0  0  0  0
  5  2  2  0  0  0  0
  6  3  1  0  0  0  0
  7  4  1  0  0  0  0
  8  2  1  0  0  0  0
  9  8  1  0  0  0  0
  7  6  2  0  0  0  0
M  END
>  <MOLREGNO> (358)
358

>  <MOLNAME> (358)
Methyl-2-furoate

>  <CORP_ID> (358)
MUSE00500139

>  <DATE> (358)
7/9/91

$$$$
